*SPEF "ieee 1481-1999"
*DESIGN "asqrt_top"
*DATE "02:12:57 Tuesday August 05, 2025"
*VENDOR "The OpenROAD Project"
*PROGRAM "OpenROAD"
*VERSION "v2.0-22660-g3354bd1366"
*DESIGN_FLOW "NAME_SCOPE LOCAL" "PIN_CAP NONE"
*DIVIDER /
*DELIMITER :
*BUS_DELIMITER []
*T_UNIT 1 NS
*C_UNIT 1 PF
*R_UNIT 1 OHM
*L_UNIT 1 HENRY

*NAME_MAP
*1 _0000_
*2 _0001_
*3 _0002_
*4 _0003_
*5 _0004_
*6 _0005_
*7 _0006_
*8 _0007_
*9 _0008_
*10 _0009_
*11 _0010_
*12 _0011_
*13 _0012_
*14 _0013_
*15 _0014_
*16 _0015_
*17 _0016_
*18 _0017_
*19 _0018_
*20 _0019_
*21 _0020_
*22 _0021_
*23 _0022_
*24 _0023_
*25 _0024_
*26 _0025_
*27 _0026_
*28 _0027_
*29 _0028_
*30 _0029_
*31 _0030_
*32 _0031_
*33 _0032_
*34 _0033_
*35 _0034_
*36 _0035_
*37 _0036_
*38 _0037_
*39 _0038_
*40 _0039_
*41 _0040_
*42 _0041_
*43 _0042_
*44 _0043_
*45 _0044_
*46 _0045_
*47 _0046_
*48 _0047_
*49 _0048_
*50 _0049_
*51 _0050_
*52 _0051_
*53 _0052_
*54 _0053_
*55 _0054_
*56 _0055_
*57 _0056_
*58 _0057_
*59 _0058_
*60 _0059_
*61 _0060_
*62 _0061_
*63 _0062_
*64 _0063_
*65 _0064_
*66 _0065_
*67 _0066_
*68 _0067_
*69 _0068_
*70 _0069_
*71 _0070_
*72 _0071_
*73 _0072_
*74 _0073_
*75 _0074_
*76 _0075_
*77 _0076_
*78 _0077_
*79 _0078_
*80 _0079_
*81 _0080_
*82 _0081_
*83 _0082_
*84 _0083_
*85 _0084_
*86 _0085_
*87 _0086_
*88 _0087_
*89 _0088_
*90 _0089_
*91 _0090_
*92 _0091_
*93 _0092_
*94 _0093_
*95 _0094_
*96 _0095_
*97 _0096_
*98 _0097_
*99 _0098_
*100 _0099_
*101 _0100_
*102 net29
*103 net28
*104 net27
*105 net26
*106 net25
*107 _0106_
*108 _0107_
*109 _0108_
*110 _0109_
*111 _0110_
*112 _0111_
*113 _0112_
*114 net24
*115 _0114_
*116 _0115_
*117 _0116_
*118 _0117_
*119 _0118_
*120 net23
*121 net22
*122 _0121_
*123 _0122_
*124 _0123_
*125 _0124_
*126 net21
*127 _0126_
*128 _0127_
*129 _0128_
*130 net20
*131 _0130_
*132 _0131_
*133 _0132_
*134 _0133_
*135 _0134_
*136 _0135_
*137 _0136_
*138 _0137_
*139 _0138_
*140 net19
*141 net18
*142 net17
*143 net16
*144 net15
*145 _0144_
*146 _0145_
*147 _0146_
*148 _0147_
*149 _0148_
*150 _0149_
*151 net14
*152 _0151_
*153 net13
*154 _0153_
*155 _0154_
*156 _0155_
*157 _0156_
*158 _0157_
*159 net12
*160 _0159_
*161 _0160_
*162 _0161_
*163 _0162_
*164 net11
*165 _0164_
*166 _0165_
*167 _0166_
*168 _0167_
*169 net10
*170 _0169_
*171 _0170_
*172 net9
*173 _0172_
*174 _0173_
*175 _0174_
*176 _0175_
*177 _0176_
*178 _0177_
*179 _0178_
*180 net8
*181 net7
*182 net6
*183 net5
*184 _0183_
*185 _0184_
*186 net4
*187 _0186_
*188 _0187_
*189 _0188_
*190 _0189_
*191 _0190_
*192 net3
*193 _0192_
*194 _0193_
*195 _0194_
*196 _0195_
*197 _0196_
*198 net2
*199 _0198_
*200 _0199_
*201 _0200_
*202 _0201_
*203 _0202_
*204 net63
*205 _0204_
*206 net266
*207 net243
*208 _0207_
*209 _0208_
*210 net62
*211 net55
*212 net53
*213 net242
*214 _0213_
*215 _0214_
*216 net275
*217 net59
*218 _0217_
*219 _0218_
*220 net274
*221 net273
*222 _0221_
*223 _0222_
*224 net260
*225 net58
*226 _0225_
*227 _0226_
*228 _0227_
*229 net268
*230 _0229_
*231 _0230_
*232 _0231_
*233 net276
*234 net261
*235 net272
*236 net267
*237 _0236_
*238 _0237_
*239 net269
*240 _0239_
*241 net265
*242 _0241_
*243 net264
*244 _0243_
*245 _0244_
*246 _0245_
*247 _0246_
*248 _0247_
*249 _0248_
*250 _0249_
*251 _0250_
*252 _0251_
*253 _0252_
*254 _0253_
*255 _0254_
*256 _0255_
*257 _0256_
*258 _0257_
*259 net262
*260 _0259_
*261 _0260_
*262 _0261_
*263 _0262_
*264 _0263_
*265 _0264_
*266 _0265_
*267 _0266_
*268 _0267_
*269 _0268_
*270 _0269_
*271 _0270_
*272 _0271_
*273 _0272_
*274 _0273_
*275 _0274_
*276 _0275_
*277 _0276_
*278 _0277_
*279 _0278_
*280 _0279_
*281 _0280_
*282 _0281_
*283 _0282_
*284 _0283_
*285 _0284_
*286 _0285_
*287 _0286_
*288 _0287_
*289 _0288_
*290 _0289_
*291 _0290_
*292 _0291_
*293 _0292_
*294 _0293_
*295 _0294_
*296 _0295_
*297 _0296_
*298 _0297_
*299 _0298_
*300 net259
*301 net258
*302 _0301_
*303 net257
*304 net256
*305 _0304_
*306 net255
*307 net57
*308 _0307_
*309 _0308_
*310 _0309_
*311 _0310_
*312 _0311_
*313 net254
*314 _0313_
*315 _0314_
*316 _0315_
*317 _0316_
*318 _0317_
*319 _0318_
*320 _0319_
*321 _0320_
*322 _0321_
*323 _0322_
*324 _0323_
*325 _0324_
*326 _0325_
*327 _0326_
*328 _0327_
*329 _0328_
*330 _0329_
*331 _0330_
*332 _0331_
*333 _0332_
*334 _0333_
*335 net253
*336 _0335_
*337 _0336_
*338 _0337_
*339 _0338_
*340 _0339_
*341 _0340_
*342 _0341_
*343 _0342_
*344 _0343_
*345 _0344_
*346 _0345_
*347 _0346_
*348 _0347_
*349 _0348_
*350 _0349_
*351 _0350_
*352 _0351_
*353 _0352_
*354 _0353_
*355 _0354_
*356 _0355_
*357 _0356_
*358 _0357_
*359 _0358_
*360 _0359_
*361 _0360_
*362 _0361_
*363 _0362_
*364 _0363_
*365 _0364_
*366 _0365_
*367 _0366_
*368 _0367_
*369 _0368_
*370 _0369_
*371 _0370_
*372 _0371_
*373 _0372_
*374 _0373_
*375 _0374_
*376 _0375_
*377 _0376_
*378 _0377_
*379 _0378_
*380 _0379_
*381 net263
*382 _0381_
*383 _0382_
*384 net252
*385 _0384_
*386 _0385_
*387 _0386_
*388 net251
*389 net250
*390 _0389_
*391 net249
*392 net248
*393 _0392_
*394 net247
*395 _0394_
*396 _0395_
*397 _0396_
*398 _0397_
*399 _0398_
*400 _0399_
*401 _0400_
*402 _0401_
*403 _0402_
*404 _0403_
*405 _0404_
*406 _0405_
*407 _0406_
*408 _0407_
*409 net246
*410 _0409_
*411 _0410_
*412 _0411_
*413 _0412_
*414 _0413_
*415 valid
*416 results[79]
*417 _0416_
*418 _0417_
*419 _0418_
*420 _0419_
*421 _0420_
*422 _0421_
*423 _0422_
*424 _0423_
*425 _0424_
*426 _0425_
*427 results[78]
*428 _0427_
*429 _0428_
*430 _0429_
*431 _0430_
*432 _0431_
*433 _0432_
*434 _0433_
*435 _0434_
*436 _0435_
*437 _0436_
*438 _0437_
*439 _0438_
*440 _0439_
*441 _0440_
*442 _0441_
*443 _0442_
*444 _0443_
*445 _0444_
*446 _0445_
*447 _0446_
*448 _0447_
*449 _0448_
*450 _0449_
*451 _0450_
*452 _0451_
*453 _0452_
*454 _0453_
*455 _0454_
*456 _0455_
*457 _0456_
*458 _0457_
*459 _0458_
*460 _0459_
*461 _0460_
*462 _0461_
*463 _0462_
*464 _0463_
*465 results[77]
*466 _0465_
*467 _0466_
*468 results[76]
*469 _0468_
*470 _0469_
*471 results[47]
*472 results[46]
*473 _0472_
*474 results[45]
*475 results[44]
*476 _0475_
*477 _0476_
*478 _0477_
*479 _0478_
*480 _0479_
*481 _0480_
*482 _0481_
*483 _0482_
*484 _0483_
*485 _0484_
*486 _0485_
*487 _0486_
*488 _0487_
*489 _0488_
*490 _0489_
*491 _0490_
*492 _0491_
*493 _0492_
*494 _0493_
*495 _0494_
*496 _0495_
*497 _0496_
*498 _0497_
*499 _0498_
*500 _0499_
*501 _0500_
*502 _0501_
*503 _0502_
*504 _0503_
*505 _0504_
*506 _0505_
*507 _0506_
*508 _0507_
*509 _0508_
*510 _0509_
*511 _0510_
*512 _0511_
*513 _0512_
*514 _0513_
*515 _0514_
*516 _0515_
*517 _0516_
*518 _0517_
*519 _0518_
*520 _0519_
*521 _0520_
*522 _0521_
*523 _0522_
*524 _0523_
*525 _0524_
*526 _0525_
*527 _0526_
*528 _0527_
*529 _0528_
*530 _0529_
*531 _0530_
*532 _0531_
*533 _0532_
*534 _0533_
*535 results[15]
*536 _0535_
*537 _0536_
*538 _0537_
*539 _0538_
*540 results[14]
*541 _0540_
*542 _0541_
*543 _0542_
*544 _0543_
*545 _0544_
*546 _0545_
*547 _0546_
*548 _0547_
*549 results[13]
*550 results[12]
*551 results[111]
*552 results[110]
*553 results[109]
*554 results[108]
*555 _0554_
*556 _0555_
*557 _0556_
*558 _0557_
*559 _0558_
*560 _0559_
*561 _0560_
*562 _0561_
*563 _0562_
*564 net34
*565 _0564_
*566 _0565_
*567 _0566_
*568 net33
*569 _0568_
*570 _0569_
*571 net32
*572 _0571_
*573 _0572_
*574 _0573_
*575 _0574_
*576 net31
*577 _0576_
*578 _0577_
*579 _0578_
*580 net30
*581 _0580_
*582 _0581_
*583 _0582_
*584 _0583_
*585 _0584_
*586 _0585_
*587 _0586_
*588 _0587_
*589 _0588_
*590 _0589_
*591 _0590_
*592 _0591_
*593 _0592_
*594 _0593_
*595 _0594_
*596 _0595_
*597 _0596_
*598 _0597_
*599 _0598_
*600 _0599_
*601 _0600_
*602 _0601_
*603 _0602_
*604 _0603_
*605 _0604_
*606 _0605_
*607 _0606_
*608 _0607_
*609 _0608_
*610 _0609_
*611 _0610_
*612 _0611_
*613 _0612_
*614 _0613_
*615 _0614_
*616 _0615_
*617 _0616_
*618 _0617_
*619 _0618_
*620 _0619_
*621 _0620_
*622 _0621_
*623 _0622_
*624 _0623_
*625 _0624_
*626 _0625_
*627 _0626_
*628 _0627_
*629 _0628_
*630 _0629_
*631 _0630_
*632 _0631_
*633 _0632_
*634 _0633_
*635 _0634_
*636 _0635_
*637 _0636_
*638 _0637_
*639 _0638_
*640 _0639_
*641 _0640_
*642 _0641_
*643 _0642_
*644 _0643_
*645 _0644_
*646 clknet_0_clk
*647 net1
*648 clk
*649 genblk1\[0\]\.pipe\.counter\[0\]
*650 genblk1\[0\]\.pipe\.counter\[1\]
*651 genblk1\[0\]\.pipe\.counter\[2\]
*652 genblk1\[0\]\.pipe\.counter\[3\]
*653 genblk1\[0\]\.pipe\.counter\[4\]
*654 genblk1\[0\]\.pipe\.eps\[0\]\[24\]
*655 genblk1\[0\]\.pipe\.eps\[0\]\[25\]
*656 genblk1\[0\]\.pipe\.eps\[0\]\[26\]
*657 genblk1\[0\]\.pipe\.eps\[0\]\[27\]
*658 genblk1\[0\]\.pipe\.eps\[0\]\[28\]
*659 genblk1\[0\]\.pipe\.eps\[0\]\[29\]
*660 genblk1\[0\]\.pipe\.eps\[0\]\[30\]
*661 genblk1\[0\]\.pipe\.eps\[0\]\[31\]
*662 genblk1\[0\]\.pipe\.state\[0\]
*663 genblk1\[0\]\.pipe\.state\[1\]
*664 genblk1\[0\]\.pipe\.valid
*665 genblk1\[1\]\.pipe\.counter\[0\]
*666 genblk1\[1\]\.pipe\.counter\[1\]
*667 genblk1\[1\]\.pipe\.counter\[2\]
*668 genblk1\[1\]\.pipe\.counter\[3\]
*669 genblk1\[1\]\.pipe\.counter\[4\]
*670 genblk1\[1\]\.pipe\.eps\[0\]\[24\]
*671 genblk1\[1\]\.pipe\.eps\[0\]\[25\]
*672 genblk1\[1\]\.pipe\.eps\[0\]\[26\]
*673 genblk1\[1\]\.pipe\.eps\[0\]\[27\]
*674 genblk1\[1\]\.pipe\.eps\[0\]\[28\]
*675 genblk1\[1\]\.pipe\.eps\[0\]\[29\]
*676 genblk1\[1\]\.pipe\.eps\[0\]\[30\]
*677 genblk1\[1\]\.pipe\.eps\[0\]\[31\]
*678 genblk1\[1\]\.pipe\.state\[0\]
*679 genblk1\[1\]\.pipe\.state\[1\]
*680 genblk1\[1\]\.pipe\.valid
*681 genblk1\[2\]\.pipe\.counter\[0\]
*682 genblk1\[2\]\.pipe\.counter\[1\]
*683 genblk1\[2\]\.pipe\.counter\[2\]
*684 genblk1\[2\]\.pipe\.counter\[3\]
*685 genblk1\[2\]\.pipe\.counter\[4\]
*686 genblk1\[2\]\.pipe\.eps\[0\]\[24\]
*687 genblk1\[2\]\.pipe\.eps\[0\]\[25\]
*688 genblk1\[2\]\.pipe\.eps\[0\]\[26\]
*689 genblk1\[2\]\.pipe\.eps\[0\]\[27\]
*690 genblk1\[2\]\.pipe\.eps\[0\]\[28\]
*691 genblk1\[2\]\.pipe\.eps\[0\]\[29\]
*692 genblk1\[2\]\.pipe\.eps\[0\]\[30\]
*693 genblk1\[2\]\.pipe\.eps\[0\]\[31\]
*694 genblk1\[2\]\.pipe\.state\[0\]
*695 genblk1\[2\]\.pipe\.state\[1\]
*696 genblk1\[2\]\.pipe\.valid
*697 genblk1\[3\]\.pipe\.counter\[0\]
*698 genblk1\[3\]\.pipe\.counter\[1\]
*699 genblk1\[3\]\.pipe\.counter\[2\]
*700 genblk1\[3\]\.pipe\.counter\[3\]
*701 genblk1\[3\]\.pipe\.counter\[4\]
*702 genblk1\[3\]\.pipe\.eps\[0\]\[24\]
*703 genblk1\[3\]\.pipe\.eps\[0\]\[25\]
*704 genblk1\[3\]\.pipe\.eps\[0\]\[26\]
*705 genblk1\[3\]\.pipe\.eps\[0\]\[27\]
*706 genblk1\[3\]\.pipe\.eps\[0\]\[28\]
*707 genblk1\[3\]\.pipe\.eps\[0\]\[29\]
*708 genblk1\[3\]\.pipe\.eps\[0\]\[30\]
*709 genblk1\[3\]\.pipe\.eps\[0\]\[31\]
*710 genblk1\[3\]\.pipe\.state\[0\]
*711 genblk1\[3\]\.pipe\.state\[1\]
*712 genblk1\[3\]\.pipe\.valid
*713 queries[0]
*714 queries[100]
*715 queries[101]
*716 queries[102]
*717 queries[103]
*718 queries[104]
*719 queries[105]
*720 queries[106]
*721 queries[107]
*722 queries[108]
*723 queries[109]
*724 queries[10]
*725 queries[110]
*726 queries[111]
*727 queries[112]
*728 queries[113]
*729 queries[114]
*730 queries[115]
*731 queries[116]
*732 queries[117]
*733 queries[118]
*734 queries[119]
*735 queries[11]
*736 queries[120]
*737 queries[121]
*738 queries[122]
*739 queries[123]
*740 queries[124]
*741 queries[125]
*742 queries[126]
*743 queries[127]
*744 queries[12]
*745 queries[13]
*746 queries[14]
*747 queries[15]
*748 queries[16]
*749 queries[17]
*750 queries[18]
*751 queries[19]
*752 queries[1]
*753 queries[20]
*754 queries[21]
*755 queries[22]
*756 queries[23]
*757 queries[24]
*758 queries[25]
*759 queries[26]
*760 queries[27]
*761 queries[28]
*762 queries[29]
*763 queries[2]
*764 queries[30]
*765 queries[31]
*766 queries[32]
*767 queries[33]
*768 queries[34]
*769 queries[35]
*770 queries[36]
*771 queries[37]
*772 queries[38]
*773 queries[39]
*774 queries[3]
*775 queries[40]
*776 queries[41]
*777 queries[42]
*778 queries[43]
*779 queries[44]
*780 queries[45]
*781 queries[46]
*782 queries[47]
*783 queries[48]
*784 queries[49]
*785 queries[4]
*786 queries[50]
*787 queries[51]
*788 queries[52]
*789 queries[53]
*790 queries[54]
*791 queries[55]
*792 queries[56]
*793 queries[57]
*794 queries[58]
*795 queries[59]
*796 queries[5]
*797 queries[60]
*798 queries[61]
*799 queries[62]
*800 queries[63]
*801 queries[64]
*802 queries[65]
*803 queries[66]
*804 queries[67]
*805 queries[68]
*806 queries[69]
*807 queries[6]
*808 queries[70]
*809 queries[71]
*810 queries[72]
*811 queries[73]
*812 queries[74]
*813 queries[75]
*814 queries[76]
*815 queries[77]
*816 queries[78]
*817 queries[79]
*818 queries[7]
*819 queries[80]
*820 queries[81]
*821 queries[82]
*822 queries[83]
*823 queries[84]
*824 queries[85]
*825 queries[86]
*826 queries[87]
*827 queries[88]
*828 queries[89]
*829 queries[8]
*830 queries[90]
*831 queries[91]
*832 queries[92]
*833 queries[93]
*834 queries[94]
*835 queries[95]
*836 queries[96]
*837 queries[97]
*838 queries[98]
*839 queries[99]
*840 queries[9]
*841 ready
*842 reset
*843 net164
*844 results[100]
*845 results[101]
*846 results[102]
*847 results[103]
*848 results[104]
*849 results[105]
*850 results[106]
*851 results[107]
*852 net35
*853 net36
*854 results[10]
*855 net37
*856 net38
*857 results[112]
*858 results[113]
*859 results[114]
*860 results[115]
*861 results[116]
*862 results[117]
*863 results[118]
*864 results[119]
*865 results[11]
*866 results[120]
*867 results[121]
*868 results[122]
*869 results[123]
*870 results[124]
*871 results[125]
*872 results[126]
*873 results[127]
*874 net39
*875 net40
*876 net41
*877 net42
*878 results[16]
*879 results[17]
*880 results[18]
*881 results[19]
*882 results[1]
*883 results[20]
*884 results[21]
*885 results[22]
*886 results[23]
*887 results[24]
*888 results[25]
*889 results[26]
*890 results[27]
*891 results[28]
*892 results[29]
*893 results[2]
*894 results[30]
*895 results[31]
*896 results[32]
*897 results[33]
*898 results[34]
*899 results[35]
*900 results[36]
*901 results[37]
*902 results[38]
*903 results[39]
*904 results[3]
*905 results[40]
*906 results[41]
*907 results[42]
*908 results[43]
*909 net43
*910 net44
*911 net45
*912 net46
*913 results[48]
*914 results[49]
*915 results[4]
*916 results[50]
*917 results[51]
*918 results[52]
*919 results[53]
*920 results[54]
*921 results[55]
*922 results[56]
*923 results[57]
*924 results[58]
*925 results[59]
*926 results[5]
*927 results[60]
*928 results[61]
*929 results[62]
*930 results[63]
*931 results[64]
*932 results[65]
*933 results[66]
*934 results[67]
*935 results[68]
*936 results[69]
*937 results[6]
*938 results[70]
*939 results[71]
*940 results[72]
*941 results[73]
*942 results[74]
*943 results[75]
*944 net47
*945 net48
*946 net49
*947 net50
*948 results[7]
*949 results[80]
*950 results[81]
*951 results[82]
*952 results[83]
*953 results[84]
*954 results[85]
*955 results[86]
*956 results[87]
*957 results[88]
*958 results[89]
*959 results[8]
*960 results[90]
*961 results[91]
*962 results[92]
*963 results[93]
*964 results[94]
*965 results[95]
*966 results[96]
*967 results[97]
*968 results[98]
*969 results[99]
*970 results[9]
*971 net51
*974 net54
*975 net60
*976 net241
*977 net56
*978 net52
*979 net61
*980 net64
*981 net244
*982 net245
*983 net270
*984 net271
*985 net65
*986 net66
*987 net67
*988 net68
*989 net69
*990 net70
*991 net71
*992 net72
*993 net73
*994 net74
*995 net75
*996 net76
*997 net77
*998 net78
*999 net79
*1000 net80
*1001 net81
*1002 net82
*1003 net83
*1004 net84
*1005 net85
*1006 net86
*1007 net87
*1008 net88
*1009 net89
*1010 net90
*1011 net91
*1012 net92
*1013 net93
*1014 net94
*1015 net95
*1016 net96
*1017 net97
*1018 net98
*1019 net99
*1020 net100
*1021 net101
*1022 net102
*1023 net103
*1024 net104
*1025 net105
*1026 net106
*1027 net107
*1028 net108
*1029 net109
*1030 net110
*1031 net111
*1032 net112
*1033 net113
*1034 net114
*1035 net115
*1036 net116
*1037 net117
*1038 net118
*1039 net119
*1040 net120
*1041 net121
*1042 net122
*1043 net123
*1044 net124
*1045 net125
*1046 net126
*1047 net127
*1048 net128
*1049 net129
*1050 net130
*1051 net131
*1052 net132
*1053 net133
*1054 net134
*1055 net135
*1056 net136
*1057 net137
*1058 net138
*1059 net139
*1060 net140
*1061 net141
*1062 net142
*1063 net143
*1064 net144
*1065 net145
*1066 net146
*1067 net147
*1068 net148
*1069 net149
*1070 net150
*1071 net151
*1072 net152
*1073 net153
*1074 net154
*1075 net155
*1076 net156
*1077 net157
*1078 net158
*1079 net159
*1080 net160
*1081 net161
*1082 net162
*1083 net163
*1084 net165
*1085 net166
*1086 net167
*1087 net168
*1088 net169
*1089 net170
*1090 net171
*1091 net172
*1092 net173
*1093 net174
*1094 net175
*1095 net176
*1096 net177
*1097 net178
*1098 net179
*1099 net180
*1100 net181
*1101 net182
*1102 net183
*1103 net184
*1104 net185
*1105 net186
*1106 net187
*1107 net188
*1108 net189
*1109 net190
*1110 net191
*1111 net192
*1112 net193
*1113 net194
*1114 net195
*1115 net196
*1116 net197
*1117 net198
*1118 net199
*1119 net200
*1120 net201
*1121 net202
*1122 net203
*1123 net204
*1124 net205
*1125 net206
*1126 net207
*1127 net208
*1128 net209
*1129 net210
*1130 net211
*1131 net212
*1132 net213
*1133 net214
*1134 net215
*1135 net216
*1136 net217
*1137 net218
*1138 net219
*1139 net220
*1140 net221
*1141 net222
*1142 net223
*1143 net224
*1144 net225
*1145 net226
*1146 net227
*1147 net228
*1148 net229
*1149 net230
*1150 net231
*1151 net232
*1152 net233
*1153 net234
*1154 net235
*1155 net236
*1156 net237
*1157 net238
*1158 net239
*1159 net240
*1160 net277
*1161 net278
*1162 net279
*1163 clknet_4_0_0_clk
*1164 clknet_4_1_0_clk
*1165 clknet_4_2_0_clk
*1166 clknet_4_3_0_clk
*1167 clknet_4_4_0_clk
*1168 clknet_4_5_0_clk
*1169 clknet_4_6_0_clk
*1170 clknet_4_7_0_clk
*1171 clknet_4_8_0_clk
*1172 clknet_4_9_0_clk
*1173 clknet_4_10_0_clk
*1174 clknet_4_11_0_clk
*1175 clknet_4_12_0_clk
*1176 clknet_4_13_0_clk
*1177 clknet_4_14_0_clk
*1178 clknet_4_15_0_clk
*1179 _1226__12
*1180 _0648_
*1181 place266
*1182 place243
*1183 _0651_
*1184 _0652_
*1185 _0653_
*1186 _0654_
*1187 _1225__11
*1188 _1218__4
*1189 _1216__2
*1190 place242
*1191 _0659_
*1192 _0660_
*1193 _0661_
*1194 place275
*1195 _1222__8
*1196 _0664_
*1197 _0665_
*1198 _0666_
*1199 _0667_
*1200 place274
*1201 place273
*1202 _0670_
*1203 _0671_
*1204 _0672_
*1205 place260
*1206 _1221__7
*1207 _0675_
*1208 _0676_
*1209 _0677_
*1210 _0678_
*1211 _0679_
*1212 place268
*1213 _0681_
*1214 _0682_
*1215 _0683_
*1216 place276
*1217 place261
*1218 place272
*1219 place267
*1220 _0688_
*1221 _0689_
*1222 place269
*1223 _0691_
*1224 place265
*1225 _0693_
*1226 place264
*1227 _0695_
*1228 _0696_
*1229 _0697_
*1230 _0698_
*1231 _0699_
*1232 _0700_
*1233 _0701_
*1234 _0702_
*1235 _0703_
*1236 _0704_
*1237 _0705_
*1238 _0706_
*1239 _0707_
*1240 _0708_
*1241 _0709_
*1242 place262
*1243 _0711_
*1244 _0712_
*1245 _0713_
*1246 _0714_
*1247 _0715_
*1248 _0716_
*1249 _0717_
*1250 _0718_
*1251 _0719_
*1252 _0720_
*1253 _0721_
*1254 _0722_
*1255 _0723_
*1256 _0724_
*1257 _0725_
*1258 _0726_
*1259 _0727_
*1260 _0728_
*1261 _0729_
*1262 _0730_
*1263 _0731_
*1264 _0732_
*1265 _0733_
*1266 _0734_
*1267 _0735_
*1268 _0736_
*1269 _0737_
*1270 _0738_
*1271 _0739_
*1272 _0740_
*1273 _0741_
*1274 _0742_
*1275 _0743_
*1276 _0744_
*1277 _0745_
*1278 _0746_
*1279 _0747_
*1280 _0748_
*1281 _0749_
*1282 _0750_
*1283 _0751_
*1284 _0752_
*1285 _0753_
*1286 _0754_
*1287 place259
*1288 place258
*1289 _0757_
*1290 place257
*1291 place256
*1292 _0760_
*1293 place255
*1294 _1220__6
*1295 _0763_
*1296 _0764_
*1297 _0765_
*1298 _0766_
*1299 _0767_
*1300 place254
*1301 _0769_
*1302 _0770_
*1303 _0771_
*1304 _0772_
*1305 _0773_
*1306 _0774_
*1307 _0775_
*1308 _0776_
*1309 _0777_
*1310 _0778_
*1311 _0779_
*1312 _0780_
*1313 _0781_
*1314 _0782_
*1315 _0783_
*1316 _0784_
*1317 _0785_
*1318 _0786_
*1319 _0787_
*1320 _0788_
*1321 _0789_
*1322 place253
*1323 _0791_
*1324 _0792_
*1325 _0793_
*1326 _0794_
*1327 _0795_
*1328 _0796_
*1329 _0797_
*1330 _0798_
*1331 _0799_
*1332 _0800_
*1333 _0801_
*1334 _0802_
*1335 _0803_
*1336 _0804_
*1337 _0805_
*1338 _0806_
*1339 _0807_
*1340 _0808_
*1341 _0809_
*1342 _0810_
*1343 _0811_
*1344 _0812_
*1345 _0813_
*1346 _0814_
*1347 _0815_
*1348 _0816_
*1349 _0817_
*1350 _0818_
*1351 _0819_
*1352 _0820_
*1353 _0821_
*1354 _0822_
*1355 _0823_
*1356 _0824_
*1357 _0825_
*1358 _0826_
*1359 _0827_
*1360 _0828_
*1361 _0829_
*1362 _0830_
*1363 _0831_
*1364 _0832_
*1365 _0833_
*1366 _0834_
*1367 _0835_
*1368 place263
*1369 _0837_
*1370 _0838_
*1371 place252
*1372 _0840_
*1373 _0841_
*1374 _0842_
*1375 _0843_
*1376 _0844_
*1377 _0845_
*1378 _0846_
*1379 place251
*1380 place250
*1381 _0849_
*1382 place249
*1383 place248
*1384 _0852_
*1385 place247
*1386 _0854_
*1387 _0855_
*1388 _0856_
*1389 _0857_
*1390 _0858_
*1391 _0859_
*1392 _0860_
*1393 _0861_
*1394 _0862_
*1395 _0863_
*1396 _0864_
*1397 _0865_
*1398 _0866_
*1399 _0867_
*1400 place246
*1401 _0869_
*1402 _0870_
*1403 _0871_
*1404 _0872_
*1405 _0873_
*1406 output51
*1407 output50
*1408 _0876_
*1409 _0877_
*1410 _0878_
*1411 _0879_
*1412 _0880_
*1413 _0881_
*1414 _0882_
*1415 _0883_
*1416 _0884_
*1417 _0885_
*1418 output49
*1419 _0887_
*1420 _0888_
*1421 _0889_
*1422 _0890_
*1423 _0891_
*1424 _0892_
*1425 _0893_
*1426 _0894_
*1427 _0895_
*1428 _0896_
*1429 _0897_
*1430 _0898_
*1431 _0899_
*1432 _0900_
*1433 _0901_
*1434 _0902_
*1435 _0903_
*1436 _0904_
*1437 _0905_
*1438 _0906_
*1439 _0907_
*1440 _0908_
*1441 _0909_
*1442 _0910_
*1443 _0911_
*1444 _0912_
*1445 _0913_
*1446 _0914_
*1447 _0915_
*1448 _0916_
*1449 _0917_
*1450 _0918_
*1451 _0919_
*1452 _0920_
*1453 _0921_
*1454 _0922_
*1455 _0923_
*1456 output48
*1457 _0925_
*1458 _0926_
*1459 output47
*1460 _0928_
*1461 _0929_
*1462 _0930_
*1463 _0931_
*1464 _0932_
*1465 _0933_
*1466 output46
*1467 output45
*1468 _0936_
*1469 output44
*1470 output43
*1471 _0939_
*1472 _0940_
*1473 _0941_
*1474 _0942_
*1475 _0943_
*1476 _0944_
*1477 _0945_
*1478 _0946_
*1479 _0947_
*1480 _0948_
*1481 _0949_
*1482 _0950_
*1483 _0951_
*1484 _0952_
*1485 _0953_
*1486 _0954_
*1487 _0955_
*1488 _0956_
*1489 _0957_
*1490 _0958_
*1491 _0959_
*1492 _0960_
*1493 _0961_
*1494 _0962_
*1495 _0963_
*1496 _0964_
*1497 _0965_
*1498 _0966_
*1499 _0967_
*1500 _0968_
*1501 _0969_
*1502 _0970_
*1503 _0971_
*1504 _0972_
*1505 _0973_
*1506 _0974_
*1507 _0975_
*1508 _0976_
*1509 _0977_
*1510 _0978_
*1511 _0979_
*1512 _0980_
*1513 _0981_
*1514 _0982_
*1515 _0983_
*1516 _0984_
*1517 _0985_
*1518 _0986_
*1519 _0987_
*1520 _0988_
*1521 _0989_
*1522 _0990_
*1523 _0991_
*1524 _0992_
*1525 _0993_
*1526 _0994_
*1527 _0995_
*1528 _0996_
*1529 _0997_
*1530 output42
*1531 _0999_
*1532 _1000_
*1533 _1001_
*1534 _1002_
*1535 _1003_
*1536 _1004_
*1537 _1005_
*1538 _1006_
*1539 output41
*1540 _1008_
*1541 _1009_
*1542 _1010_
*1543 _1011_
*1544 _1012_
*1545 _1013_
*1546 _1014_
*1547 _1015_
*1548 _1016_
*1549 _1017_
*1550 _1018_
*1551 _1019_
*1552 _1020_
*1553 output40
*1554 output39
*1555 output38
*1556 output37
*1557 output36
*1558 output35
*1559 _1027_
*1560 _1028_
*1561 _1029_
*1562 _1030_
*1563 _1031_
*1564 _1032_
*1565 _1033_
*1566 _1034_
*1567 _1035_
*1568 _1036_
*1569 _1037_
*1570 _1038_
*1571 _1039_
*1572 input34
*1573 _1041_
*1574 _1042_
*1575 _1043_
*1576 _1044_
*1577 _1045_
*1578 input33
*1579 _1047_
*1580 _1048_
*1581 input32
*1582 _1050_
*1583 _1051_
*1584 _1052_
*1585 _1053_
*1586 _1054_
*1587 _1055_
*1588 _1056_
*1589 input31
*1590 _1058_
*1591 _1059_
*1592 _1060_
*1593 _1061_
*1594 input30
*1595 _1063_
*1596 _1064_
*1597 _1065_
*1598 _1066_
*1599 _1067_
*1600 _1068_
*1601 _1069_
*1602 _1070_
*1603 _1071_
*1604 _1072_
*1605 input29
*1606 input28
*1607 input27
*1608 input26
*1609 input25
*1610 _1078_
*1611 _1079_
*1612 _1080_
*1613 _1081_
*1614 _1082_
*1615 _1083_
*1616 _1084_
*1617 _1085_
*1618 _1086_
*1619 _1087_
*1620 input24
*1621 _1089_
*1622 _1090_
*1623 _1091_
*1624 _1092_
*1625 _1093_
*1626 _1094_
*1627 _1095_
*1628 input23
*1629 _1097_
*1630 input22
*1631 _1099_
*1632 _1100_
*1633 _1101_
*1634 _1102_
*1635 _1103_
*1636 _1104_
*1637 input21
*1638 _1106_
*1639 _1107_
*1640 _1108_
*1641 _1109_
*1642 input20
*1643 _1111_
*1644 _1112_
*1645 _1113_
*1646 _1114_
*1647 _1115_
*1648 _1116_
*1649 _1117_
*1650 _1118_
*1651 _1119_
*1652 _1120_
*1653 _1121_
*1654 _1122_
*1655 _1123_
*1656 _1124_
*1657 input19
*1658 input18
*1659 input17
*1660 input16
*1661 input15
*1662 _1130_
*1663 _1131_
*1664 _1132_
*1665 _1133_
*1666 _1134_
*1667 _1135_
*1668 _1136_
*1669 _1137_
*1670 input14
*1671 _1139_
*1672 _1140_
*1673 input13
*1674 _1142_
*1675 _1143_
*1676 _1144_
*1677 _1145_
*1678 _1146_
*1679 _1147_
*1680 _1148_
*1681 _1149_
*1682 input12
*1683 _1151_
*1684 _1152_
*1685 _1153_
*1686 _1154_
*1687 _1155_
*1688 _1156_
*1689 input11
*1690 _1158_
*1691 _1159_
*1692 _1160_
*1693 _1161_
*1694 _1162_
*1695 input10
*1696 _1164_
*1697 _1165_
*1698 input9
*1699 _1167_
*1700 _1168_
*1701 _1169_
*1702 _1170_
*1703 _1171_
*1704 _1172_
*1705 _1173_
*1706 _1174_
*1707 _1175_
*1708 _1176_
*1709 _1177_
*1710 _1178_
*1711 input8
*1712 input7
*1713 input6
*1714 input5
*1715 _1183_
*1716 _1184_
*1717 input4
*1718 _1186_
*1719 _1187_
*1720 _1188_
*1721 _1189_
*1722 _1190_
*1723 _1191_
*1724 _1192_
*1725 _1193_
*1726 input3
*1727 _1195_
*1728 _1196_
*1729 _1197_
*1730 _1198_
*1731 _1199_
*1732 _1200_
*1733 _1201_
*1734 _1202_
*1735 input2
*1736 _1204_
*1737 _1205_
*1738 _1206_
*1739 _1207_
*1740 _1208_
*1741 _1209_
*1742 _1210_
*1743 _1211_
*1744 _1212_
*1745 clkbuf_0_clk
*1746 genblk1\[0\]\.pipe\.counter\[0\]\$_SDFFE_PP0P__113
*1747 input1
*1748 _1216_
*1749 _1217_
*1750 _1218_
*1751 _1219_
*1752 _1220_
*1753 _1221_
*1754 _1222_
*1755 _1223_
*1756 _1224_
*1757 _1225_
*1758 _1226_
*1759 _1227_
*1760 _1228_
*1761 _1229_
*1762 _1230_
*1763 _1231_
*1764 _1232_
*1765 _1233_
*1766 _1234_
*1767 _1235_
*1768 _1236_
*1769 _1237_
*1770 _1238_
*1771 _1239_
*1772 _1240_
*1773 _1241_
*1774 _1242_
*1775 _1243_
*1776 _1244_
*1777 _1245_
*1778 _1246_
*1779 _1247_
*1780 _1248_
*1781 _1249_
*1782 _1250_
*1783 _1251_
*1784 _1252_
*1785 _1253_
*1786 _1254_
*1787 _1255_
*1788 _1256_
*1789 _1257_
*1790 _1258_
*1791 _1259_
*1792 _1260_
*1793 _1261_
*1794 _1262_
*1795 _1263_
*1796 _1264_
*1797 _1265_
*1798 _1266_
*1799 _1267_
*1800 _1268_
*1801 _1269_
*1802 _1270_
*1803 _1271_
*1804 _1272_
*1805 _1273_
*1806 _1274_
*1807 _1275_
*1808 _1276_
*1809 _1277_
*1810 _1278_
*1811 _1279_
*1812 _1280_
*1813 _1281_
*1814 _1282_
*1815 _1283_
*1816 _1284_
*1817 _1285_
*1818 _1286_
*1819 _1287_
*1820 _1288_
*1821 _1289_
*1822 _1290_
*1823 _1291_
*1824 _1292_
*1825 _1293_
*1826 _1294_
*1827 _1295_
*1828 _1296_
*1829 _1297_
*1830 _1298_
*1831 _1299_
*1832 _1300_
*1833 _1301_
*1834 _1302_
*1835 _1303_
*1836 _1304_
*1837 _1305_
*1838 _1306_
*1839 _1307_
*1840 _1308_
*1841 _1309_
*1842 _1310_
*1843 _1311_
*1844 _1312_
*1845 _1313_
*1846 _1314_
*1847 _1315_
*1848 _1316_
*1849 _1317_
*1850 _1318_
*1851 _1319_
*1852 _1320_
*1853 _1321_
*1854 _1322_
*1855 _1323_
*1856 _1324_
*1857 _1325_
*1858 _1326_
*1859 genblk1\[0\]\.pipe\.counter\[0\]\$_SDFFE_PP0P_
*1860 genblk1\[0\]\.pipe\.counter\[1\]\$_SDFFE_PP0P_
*1861 genblk1\[0\]\.pipe\.counter\[2\]\$_SDFFE_PP0P_
*1862 genblk1\[0\]\.pipe\.counter\[3\]\$_SDFFE_PP0P_
*1863 genblk1\[0\]\.pipe\.counter\[4\]\$_SDFFE_PP0P_
*1864 genblk1\[0\]\.pipe\.result\[12\]\$_DFFE_PP_
*1865 genblk1\[0\]\.pipe\.result\[13\]\$_DFFE_PP_
*1866 genblk1\[0\]\.pipe\.result\[14\]\$_DFFE_PP_
*1867 genblk1\[0\]\.pipe\.result\[15\]\$_DFFE_PP_
*1868 genblk1\[0\]\.pipe\.state\[0\]\$_DFF_P_
*1869 genblk1\[0\]\.pipe\.state\[1\]\$_DFF_P_
*1870 genblk1\[0\]\.pipe\.this_query\[24\]\$_SDFFE_PP0P_
*1871 genblk1\[0\]\.pipe\.this_query\[25\]\$_SDFFE_PP0P_
*1872 genblk1\[0\]\.pipe\.this_query\[26\]\$_SDFFE_PP0P_
*1873 genblk1\[0\]\.pipe\.this_query\[27\]\$_SDFFE_PP0P_
*1874 genblk1\[0\]\.pipe\.this_query\[28\]\$_SDFFE_PP0P_
*1875 genblk1\[0\]\.pipe\.this_query\[29\]\$_SDFFE_PP0P_
*1876 genblk1\[0\]\.pipe\.this_query\[30\]\$_SDFFE_PP0P_
*1877 genblk1\[0\]\.pipe\.this_query\[31\]\$_SDFFE_PP0P_
*1878 genblk1\[0\]\.pipe\.valid\$_SDFFE_PP0P_
*1879 genblk1\[1\]\.pipe\.counter\[0\]\$_SDFFE_PP0P_
*1880 genblk1\[1\]\.pipe\.counter\[1\]\$_SDFFE_PP0P_
*1881 genblk1\[1\]\.pipe\.counter\[2\]\$_SDFFE_PP0P_
*1882 genblk1\[1\]\.pipe\.counter\[3\]\$_SDFFE_PP0P_
*1883 genblk1\[1\]\.pipe\.counter\[4\]\$_SDFFE_PP0P_
*1884 genblk1\[1\]\.pipe\.result\[12\]\$_DFFE_PP_
*1885 genblk1\[1\]\.pipe\.result\[13\]\$_DFFE_PP_
*1886 genblk1\[1\]\.pipe\.result\[14\]\$_DFFE_PP_
*1887 genblk1\[1\]\.pipe\.result\[15\]\$_DFFE_PP_
*1888 genblk1\[1\]\.pipe\.state\[0\]\$_DFF_P_
*1889 genblk1\[1\]\.pipe\.state\[1\]\$_DFF_P_
*1890 genblk1\[1\]\.pipe\.this_query\[24\]\$_SDFFE_PP0P_
*1891 genblk1\[1\]\.pipe\.this_query\[25\]\$_SDFFE_PP0P_
*1892 genblk1\[1\]\.pipe\.this_query\[26\]\$_SDFFE_PP0P_
*1893 genblk1\[1\]\.pipe\.this_query\[27\]\$_SDFFE_PP0P_
*1894 genblk1\[1\]\.pipe\.this_query\[28\]\$_SDFFE_PP0P_
*1895 genblk1\[1\]\.pipe\.this_query\[29\]\$_SDFFE_PP0P_
*1896 genblk1\[1\]\.pipe\.this_query\[30\]\$_SDFFE_PP0P_
*1897 genblk1\[1\]\.pipe\.this_query\[31\]\$_SDFFE_PP0P_
*1898 genblk1\[1\]\.pipe\.valid\$_SDFFE_PP0P_
*1899 genblk1\[2\]\.pipe\.counter\[0\]\$_SDFFE_PP0P_
*1900 genblk1\[2\]\.pipe\.counter\[1\]\$_SDFFE_PP0P_
*1901 genblk1\[2\]\.pipe\.counter\[2\]\$_SDFFE_PP0P_
*1902 genblk1\[2\]\.pipe\.counter\[3\]\$_SDFFE_PP0P_
*1903 genblk1\[2\]\.pipe\.counter\[4\]\$_SDFFE_PP0P_
*1904 genblk1\[2\]\.pipe\.result\[12\]\$_DFFE_PP_
*1905 genblk1\[2\]\.pipe\.result\[13\]\$_DFFE_PP_
*1906 genblk1\[2\]\.pipe\.result\[14\]\$_DFFE_PP_
*1907 genblk1\[2\]\.pipe\.result\[15\]\$_DFFE_PP_
*1908 genblk1\[2\]\.pipe\.state\[0\]\$_DFF_P_
*1909 genblk1\[2\]\.pipe\.state\[1\]\$_DFF_P_
*1910 genblk1\[2\]\.pipe\.this_query\[24\]\$_SDFFE_PP0P_
*1911 genblk1\[2\]\.pipe\.this_query\[25\]\$_SDFFE_PP0P_
*1912 genblk1\[2\]\.pipe\.this_query\[26\]\$_SDFFE_PP0P_
*1913 genblk1\[2\]\.pipe\.this_query\[27\]\$_SDFFE_PP0P_
*1914 genblk1\[2\]\.pipe\.this_query\[28\]\$_SDFFE_PP0P_
*1915 genblk1\[2\]\.pipe\.this_query\[29\]\$_SDFFE_PP0P_
*1916 genblk1\[2\]\.pipe\.this_query\[30\]\$_SDFFE_PP0P_
*1917 genblk1\[2\]\.pipe\.this_query\[31\]\$_SDFFE_PP0P_
*1918 genblk1\[2\]\.pipe\.valid\$_SDFFE_PP0P_
*1919 genblk1\[3\]\.pipe\.counter\[0\]\$_SDFFE_PP0P_
*1920 genblk1\[3\]\.pipe\.counter\[1\]\$_SDFFE_PP0P_
*1921 genblk1\[3\]\.pipe\.counter\[2\]\$_SDFFE_PP0P_
*1922 genblk1\[3\]\.pipe\.counter\[3\]\$_SDFFE_PP0P_